
     RDKit          3D

 13 13  0  0  0  0  0  0  0  0999 V2000
  142.4936  140.8015  138.3915 C   0  0  0  0  0  0  0  0  0  0  0  0
  141.5950  141.2740  139.4949 C   0  0  0  0  0  0  0  0  0  0  0  0
  141.1462  142.4096  139.5838 O   0  0  0  0  0  0  0  0  0  0  0  0
  141.3491  140.2134  140.3600 O   0  0  0  0  0  0  0  0  0  0  0  0
  142.4059  139.9874  141.2467 C   0  0  0  0  0  0  0  0  0  0  0  0
  142.7890  141.0618  142.0562 C   0  0  0  0  0  0  0  0  0  0  0  0
  143.8171  140.8954  142.9820 C   0  0  0  0  0  0  0  0  0  0  0  0
  144.4495  139.6588  143.1057 C   0  0  0  0  0  0  0  0  0  0  0  0
  144.0511  138.5811  142.3078 C   0  0  0  0  0  0  0  0  0  0  0  0
  143.0166  138.7311  141.3709 C   0  0  0  0  0  0  0  0  0  0  0  0
  142.5684  137.5825  140.5401 C   0  0  0  0  0  0  0  0  0  0  0  0
  142.6367  136.4005  140.8225 O   0  0  0  0  0  0  0  0  0  0  0  0
  142.0457  137.9712  139.3609 O   0  0  0  0  0  0  0  0  0  0  0  0
  1  2  1  0
  2  3  2  0
  2  4  1  0
  4  5  1  0
  5  6  4  0
  6  7  4  0
  7  8  4  0
  8  9  4  0
  9 10  4  0
 10 11  1  0
 11 12  2  0
 11 13  1  0
 10  5  4  0
M  END
